[TITLE]
'UK EA 2D test case #8b'

[OPTIONS]
FLOW_UNITS           CMS
INFILTRATION         HORTON
FLOW_ROUTING         DYNWAVE
START_DATE           01/01/2007
START_TIME           00:00:00
REPORT_START_DATE    01/01/2007
REPORT_START_TIME    00:00:00
END_DATE             01/01/2007
END_TIME             05:00:00
SWEEP_START          01/01
SWEEP_END            12/31
DRY_DAYS             0
REPORT_STEP          00:00:30
WET_STEP             00:00:05
DRY_STEP             01:00:00
ROUTING_STEP         2
ALLOW_PONDING        YES
INERTIAL_DAMPING     NONE
VARIABLE_STEP        .5
LENGTHENING_STEP     0
MIN_SURFAREA         1
NORMAL_FLOW_LIMITED  FROUDE
SKIP_STEADY_STATE    NO
FORCE_MAIN_EQUATION  D-W
LINK_OFFSETS         DEPTH
MIN_SLOPE            0

[REPORT]
INPUT YES
CONTROLS YES
NODES ALL
LINKS ALL

[JUNCTIONS]
;;               Invert     Max.       Init.      Surcharge  Ponded    
;;Name           Elev.      Depth      Depth      Depth      Area      
;;-------------- ---------- ---------- ---------- ---------- ----------
J0               39.17        2.0          0       100        0
J1               29.46        2.0          0       0          1
J2               27.70        2.0          0       100        0
J3               26.37        2.0          0       100        0
J4               25.70        2.0          0       100        0
J5               24.64        2.0          0       100        0
J6               24.29        2.0          0       100        0

[OUTFALL]
O7               23.49        FREE

[COORDINATES]
;;Node           X-Coord        Y-Coord
;;-------------- -------------- --------
J1               264895         664747

[CONDUITS]
;;             Inlet      Outlet                 Manning    Inlet      Outlet     Init.      Max.      
;;Name         Node       Node        Length     N          Offset     Offset     Flow       Flow      
;;------------ ---------- ----------- ---------- ---------- ---------- ---------- ---------- ----------
C0             J0        J1           467         0.017       0         0         0
C1             J1        J2           104         0.017       0         0         0
C2             J2        J3           106         0.017       0         0         0
C3             J3        J4           200         0.017       0         0         0
C4             J4        J5           114         0.017       0         0         0
C5             J5        J6           154         0.017       0         0         0
C6             J6        O7           195         0.017       0         0         0

[XSECTIONS]
;;Link           Shape        Geom1            Geom2      Geom3      Geom4      Barrels   
;;-------------- ------------ ---------------- ---------- ---------- ---------- ----------
C0               CIRCULAR    1.4               0            0          0          1
C1               CIRCULAR    1.4               0            0          0          1
C2               CIRCULAR    1.4               0            0          0          1
C3               CIRCULAR    1.4               0            0          0          1
C4               CIRCULAR    1.4               0            0          0          1
C5               CIRCULAR    1.4               0            0          0          1
C6               CIRCULAR    1.4               0            0          0          1

[INFLOWS]
J0              FLOW        inq

[TIMESERIES]
inq	0   	1.6
inq	0.033	1.6
inq	0.067	1.6
inq	0.1 	1.6
inq	0.133	1.61644
inq	0.167	1.6336
inq	0.2	    1.65472
inq	0.233	1.67188
inq	0.267	1.68904
inq	0.3	    1.70488
inq	0.333	1.71808
inq	0.367	1.71808
inq	0.4 	1.7392
inq	0.433	1.75636
inq	0.467	1.77352
inq	0.5	    1.7986
inq	0.533	1.82764
inq	0.567	1.8448
inq	0.6	    1.88704
inq	0.633	1.92136
inq	0.667	1.95436
inq	0.7	    1.98868
inq	0.733	2.02168
inq	0.767	2.056
inq	0.8	    2.09824
inq	0.833	2.1484
inq	0.867	2.19988
inq	0.9	    2.25928
inq	0.933	2.32264
inq	0.967	2.3728
inq	1	    2.4784
inq	1.033	2.56288
inq	1.067	2.66056
inq	1.1 	2.77012
inq	1.133	2.8876
inq	1.167	3.0064
inq	1.2	    3.17536
inq	1.233	3.29416
inq	1.267	3.44992
inq	1.3	    3.61888
inq	1.333	3.78784
inq	1.367	3.9568
inq	1.4 	4.168
inq	1.433	4.33696
inq	1.467	4.50592
inq	1.5 	4.67488
inq	1.533	4.83988
inq	1.567	4.99168
inq	1.6 	5.16064
inq	1.633	5.27944
inq	1.667	5.41012
inq	1.7 	5.54476
inq	1.733	5.67148
inq	1.767	5.77312
inq	1.8 	5.89984
inq	1.833	6.00148
inq	1.867	6.10312
inq	1.9 	6.1876
inq	1.933	6.24096
inq	1.967	6.28111
inq	2   	6.28111
inq	2.033	6.24096
inq	2.067	6.1876
inq	2.1	    6.10312
inq	2.133	6.00148
inq	2.167	5.89984
inq	2.2 	5.77312
inq	2.233	5.67148
inq	2.267	5.54476
inq	2.3 	5.41012
inq	2.333	5.27944
inq	2.367	5.16064
inq	2.4	    4.99168
inq	2.433	4.83988
inq	2.467	4.67488
inq	2.5 	4.50592
inq	2.533	4.33696
inq	2.567	4.168
inq	2.6 	3.9568
inq	2.633	3.78784
inq	2.667	3.61888
inq	2.7 	3.44992
inq	2.733	3.29416
inq	2.767	3.17536
inq	2.8 	3.0064
inq	2.833	2.8876
inq	2.867	2.77012
inq	2.9 	2.66056
inq	2.933	2.56288
inq	2.967	2.4784
inq	3   	2.3728
inq	3.033	2.32264
inq	3.067	2.25928
inq	3.1 	2.19988
inq	3.133	2.1484
inq	3.167	2.09824
inq	3.2 	2.056
inq	3.233	2.02168
inq	3.267	1.98868
inq	3.3 	1.95436
inq	3.333	1.92136
inq	3.367	1.88704
inq	3.4 	1.8448
inq	3.433	1.82764
inq	3.467	1.7986
inq	3.5 	1.77352
inq	3.533	1.75636
inq	3.567	1.7392
inq	3.6 	1.71808
inq	3.633	1.71808
inq	3.667	1.70488
inq	3.7 	1.68904
inq	3.733	1.67188
inq	3.767	1.65472
inq	3.8 	1.6336
inq	3.833	1.61644
inq	3.867	1.6
inq	3.9 	1.6
inq	3.933	1.6
inq	3.967	1.6
inq	5   	1.6
